<?xml version='1.0' encoding='UTF-8'?>
<routes xmlns:xsi="http://www.w3.org/2001/XMLSchema-instance" xsi:noNamespaceSchemaLocation="http://sumo.dlr.de/xsd/routes_file.xsd">
    <vType id="standard_car" vClass= "passenger" guiShape="passenger" color="1,1,0" lcSpeedGain="0" lcKeepRight="0" lcCooperative="0" maxSpeed="12"/>
    <vType id="standard_truck" vClass= "truck" guiShape="truck" color="0,1,0" lcSpeedGain="0" lcKeepRight="0" lcCooperative="0" maxSpeed="12"/>
    <vType id="standard_bus" vClass= "bus" guiShape="bus" color="0,0,1" lcSpeedGain="0" lcKeepRight="0" lcCooperative="0" maxSpeed="12"/>
    <vType id="standard_bicycle" vClass= "bicycle" guiShape="bicycle" color="1,0,1" lcSpeedGain="0" lcKeepRight="0" lcCooperative="0" maxSpeed="12"/>
    <vType id="standard_motorcycle" vClass= "motorcycle" guiShape="motorcycle" color="0.5,0.5,0" lcSpeedGain="0" lcKeepRight="0" lcCooperative="0" maxSpeed="12"/>

    <route id="W_E" edges="1 0"/>
    <route id="W_N" edges="1 17"/>

    <route id="E_W" edges="-0 -1"/>
    <route id="E_S" edges="-0 -18"/>

    <route id="N_S" edges="-47 -18"/>
    <route id="N_E" edges="-47 0"/>

    

    <route id="S_N" edges="40 17"/>
    <route id="S_W" edges="40 -1"/>

    <flow id="rl_S_N_" vehsPerHour="900" route="S_N" departSpeed="10"/>
    <flow id="rl_S_W_" vehsPerHour="300" route="S_W" departSpeed="10"/>
    <flow id="rl_E_W_" vehsPerHour="900" route="E_W" departSpeed="10"/>
    <flow id="rl_E_S_" vehsPerHour="300" route="E_S" departSpeed="10"/>
    <flow id="rl_N_S_" vehsPerHour="900" route="N_S" departSpeed="10"/>
    <flow id="rl_N_E_" vehsPerHour="300" route="N_E" departSpeed="10"/>
    <flow id="rl_W_E_" vehsPerHour="900" route="W_E" departSpeed="10"/>
    <flow id="rl_W_N_" vehsPerHour="300" route="W_N" departSpeed="10"/>
</routes>
